LTspice 26.0.1 for Windows
Circuit: C:\Users\pdema\Downloads\Instrumentación y Acondicionamiento de Señal\Trabajo\Versiones anteriores\BDI\BDI_Etapa1\BDI_Etapa1.net
Start Time: Thu Jun 11 11:48:03 2026

.step iph=1e-09 egain=2
solver = Normal
Maximum thread count: 16
tnom = 27
temp = 27
method = trap
Instance "M1": Length shorter than recommended for a level 1 MOSFET.
Direct Newton iteration succeeded in finding operating point.

.step iph=1e-08 egain=2
Direct Newton iteration succeeded in finding operating point.

.step iph=1e-07 egain=2
Direct Newton iteration succeeded in finding operating point.

.step iph=1e-09 egain=1000
Direct Newton iteration succeeded in finding operating point.

.step iph=1e-08 egain=1000
Direct Newton iteration succeeded in finding operating point.

.step iph=1e-07 egain=1000
Direct Newton iteration succeeded in finding operating point.
Total elapsed time: 0.444 seconds.

Files loaded:
C:\Users\pdema\Downloads\Instrumentación y Acondicionamiento de Señal\Trabajo\Versiones anteriores\BDI\BDI_Etapa1\BDI_Etapa1.net
C:\Users\pdema\AppData\Local\LTspice\lib\cmp\standard.mos


Measurement: vbias
  step	V(bias) 	at
     1	2	1e-06
     2	2	1e-06
     3	2	1e-06
     4	2	1e-06
     5	2	1e-06
     6	2	1e-06

Measurement: vpd
  step	V(nodo_pd) 	at
     1	1.0995477438	1e-06
     2	1.0985648632	1e-06
     3	1.09546005726	1e-06
     4	1.9973013401	1e-06
     5	1.99729835987	1e-06
     6	1.99728894234	1e-06

Measurement: vg
  step	V(gate) 	at
     1	1.80090451241	1e-06
     2	1.8028703928	1e-06
     3	1.80907988548	1e-06
     4	2.69867086411	1e-06
     5	2.70164060593	1e-06
     6	2.71102428436	1e-06

Measurement: vint
  step	V(nodo_int) 	at
     1	5	1e-06
     2	5	1e-06
     3	5	1e-06
     4	5	1e-06
     5	5	1e-06
     6	5	1e-06
