LTspice 26.0.1 for Windows
Circuit: C:\Users\pdema\Downloads\Instrumentación y Acondicionamiento de Señal\Trabajo\Versiones anteriores\CMI\CMI_Etapa1\CMI_Etapa1.net
Start Time: Thu Jun 11 13:47:20 2026
solver = Normal
Maximum thread count: 16
tnom = 27
temp = 27
method = trap
Instance "Mp1": Length shorter than recommended for a level 1 MOSFET.
Instance "Mp2": Length shorter than recommended for a level 1 MOSFET.
Instance "Mn1": Length shorter than recommended for a level 1 MOSFET.
Instance "Mn2": Length shorter than recommended for a level 1 MOSFET.
Direct Newton iteration succeeded in finding operating point.
Total elapsed time: 0.088 seconds.

Files loaded:
C:\Users\pdema\Downloads\Instrumentación y Acondicionamiento de Señal\Trabajo\Versiones anteriores\CMI\CMI_Etapa1\CMI_Etapa1.net
C:\Users\pdema\AppData\Local\LTspice\lib\cmp\standard.mos

vpd: V(nodo_pd) =0.000956645002589 at 1e-06
vx: V(nodo_x) =4.28595781326 at 1e-06
vy: V(nodo_y) =0.714528560638 at 1e-06
imn1: ID(Mn1) =1.07049331177e-07 at 1e-06
imp1: ID(Mp1) =-1.07049331177e-07 at 1e-06
imp2: ID(Mp2) =-1.00000001169e-07 at 1e-06
imn2: ID(Mn2) =1.00000001169e-07 at 1e-06
