LTspice 26.0.1 for Windows
Circuit: C:\Users\pdema\Downloads\Instrumentación y Acondicionamiento de Señal\Trabajo\Versiones anteriores\BDI\BDI_Etapa3\BDI_Etapa3.net
Start Time: Thu Jun 11 11:52:42 2026

.step vc_ini=0
solver = Normal
Maximum thread count: 16
tnom = 27
temp = 27
method = trap
WARNING: Node nodo_int is floating.
WARNING: Node nc_04 is floating.

Instance "M1": Length shorter than recommended for a level 1 MOSFET.
Direct Newton iteration failed to find operating point.
Starting Gmin stepping
Gmin stepping succeeded in finding the operating point.


.step vc_ini=2
Direct Newton iteration succeeded in finding operating point.

.step vc_ini=3
Direct Newton iteration succeeded in finding operating point.

.step vc_ini=4
Direct Newton iteration succeeded in finding operating point.

.step vc_ini=5
Direct Newton iteration succeeded in finding operating point.
Total elapsed time: 0.396 seconds.

Files loaded:
C:\Users\pdema\Downloads\Instrumentación y Acondicionamiento de Señal\Trabajo\Versiones anteriores\BDI\BDI_Etapa3\BDI_Etapa3.net
C:\Users\pdema\AppData\Local\LTspice\lib\cmp\standard.mos


Measurement: vbias
  step	V(bias) 	at
     1	2	1e-06
     2	2	1e-06
     3	2	1e-06
     4	2	1e-06
     5	2	1e-06

Measurement: vpd
  step	V(nodo_pd) 	at
     1	-0.0010000499922	1e-06
     2	1.99724495411	1e-06
     3	1.99728870392	1e-06
     4	1.99728882313	1e-06
     5	1.99728894234	1e-06

Measurement: vg
  step	V(gate) 	at
     1	2001	1e-06
     2	2.75510501878	1e-06
     3	2.71129107475	1e-06
     4	2.71115589142	1e-06
     5	2.71102428436	1e-06

Measurement: vint
  step	V(nodo_int) 	at
     1	-0.00100000005002	1e-06
     2	1.99899995327	1e-06
     3	2.99900007248	1e-06
     4	3.99900007248	1e-06
     5	4.99900007248	1e-06

Measurement: v1
  step	V(nodo_int) 	at
     1	-0.0499999866686	5e-05
     2	1.94999903428	5e-05
     3	2.94999854254	5e-05
     4	3.9499980359	5e-05
     5	4.94999766337	5e-05

Measurement: v2
  step	V(nodo_int) 	at
     1	-0.19999979463	0.0002
     2	1.79999623462	0.0002
     3	2.79999421683	0.0002
     4	3.79999217345	0.0002
     5	4.79999036849	0.0002

Measurement: slope
  step	(V2-V1)/(150u)
     1	-999.998719746
     2	-1000.0186644
     3	-1000.02883804
     4	-1000.03908299
     5	-1000.04863254
