LTspice 26.0.1 for Windows
Circuit: C:\Users\pdema\Downloads\Instrumentación y Acondicionamiento de Señal\Trabajo\GMI_Etapa2\GMI_Etapa2.net
Start Time: Fri Jun  5 21:04:40 2026

.step iph=1e-09
solver = Normal
Maximum thread count: 16
tnom = 27
temp = 27
method = trap
Instance "M2": Length shorter than recommended for a level 1 MOSFET.
Instance "M1": Length shorter than recommended for a level 1 MOSFET.
Direct Newton iteration succeeded in finding operating point.

.step iph=1e-08
Direct Newton iteration succeeded in finding operating point.

.step iph=1e-07
Direct Newton iteration succeeded in finding operating point.
Total elapsed time: 0.226 seconds.

Files loaded:
C:\Users\pdema\Downloads\Instrumentación y Acondicionamiento de Señal\Trabajo\GMI_Etapa2\GMI_Etapa2.net
C:\Users\pdema\AppData\Local\LTspice\lib\cmp\standard.mos


Measurement: v1
  step	V(nodo_int) 	at
     1	0.000546627024902	5e-05
     2	0.00542755316568	5e-05
     3	0.0542030873055	5e-05

Measurement: v2
  step	V(nodo_int) 	at
     1	0.00218647253547	0.0002
     2	0.0217069701461	0.0002
     3	0.216491751556	0.0002

Measurement: slope
  step	(V2-V1)/(150u)
     1	10.9323034038
     2	108.529446536
     3	1081.92442834
