LTspice 26.0.1 for Windows
Circuit: C:\Users\pdema\Downloads\Instrumentación y Acondicionamiento de Señal\Trabajo\CTI_Etapa4\CTI_Etapa4.net
Start Time: Tue Jun  9 20:59:23 2026
solver = Normal
Maximum thread count: 16
tnom = 27
temp = 27
method = trap
Instance "M1": Length shorter than recommended for a level 1 MOSFET.
Instance "M2": Length shorter than recommended for a level 1 MOSFET.
Per .tran options, skipping operating point for transient analysis.
Total elapsed time: 0.093 seconds.

Files loaded:
C:\Users\pdema\Downloads\Instrumentación y Acondicionamiento de Señal\Trabajo\CTI_Etapa4\CTI_Etapa4.net
C:\Users\pdema\AppData\Local\LTspice\lib\cmp\standard.mos
C:\Users\pdema\AppData\Local\LTspice\lib\sub\UniversalOpAmp2.lib

v1: V(nodo_int) =2.1908603367 at 0.0002
v2: V(nodo_int) =2.82685319857 at 0.0008
slope: (V2-V1)/(600u)=1059.98810311
vpd50: V(nodo_pd) =1.99998102242 at 5e-05
vint50: V(nodo_int) =2.03186094347 at 5e-05
icavg: AVG(I(Cint) )=-1.00419972601e-07 FROM 1e-05 TO 0.0002
vint_before_reset: V(nodo_int) =3.02824929086 at 0.00099
vint_after_reset: V(nodo_int) =2.00007486632 at 0.00202
vpd_avg: AVG(V(nodo_pd) )=1.99998049515 FROM 0.0001 TO 0.0009
ireset: AVG(Id(M2) )=-1.02774174306e-12 FROM 0.0001 TO 0.0009
