LTspice 26.0.1 for Windows
Circuit: C:\Users\pdema\Downloads\Instrumentación y Acondicionamiento de Señal\Trabajo\GMI_Etapa3\GMI_Etapa3.net
Start Time: Fri Jun  5 22:18:54 2026

.step iph=1e-09
solver = Normal
Maximum thread count: 16
tnom = 27
temp = 27
method = trap
Instance "M2": Length shorter than recommended for a level 1 MOSFET.
Instance "M1": Length shorter than recommended for a level 1 MOSFET.
Instance "M3": Length shorter than recommended for a level 1 MOSFET.
Direct Newton iteration succeeded in finding operating point.

.step iph=1e-08
Direct Newton iteration succeeded in finding operating point.

.step iph=1e-07
Direct Newton iteration succeeded in finding operating point.
Total elapsed time: 0.254 seconds.

Files loaded:
C:\Users\pdema\Downloads\Instrumentación y Acondicionamiento de Señal\Trabajo\GMI_Etapa3\GMI_Etapa3.net
C:\Users\pdema\AppData\Local\LTspice\lib\cmp\standard.mos

