LTspice 26.0.1 for Windows
Circuit: C:\Users\pdema\Downloads\Instrumentación y Acondicionamiento de Señal\Trabajo\Versiones anteriores\GMI\GMI_Etapa1\GMI_Etapa1.net
Start Time: Thu Jun 11 11:25:03 2026

.step iph=1e-09
solver = Normal
Maximum thread count: 16
tnom = 27
temp = 27
method = trap
Instance "M1": Length shorter than recommended for a level 1 MOSFET.
Instance "M2": Length shorter than recommended for a level 1 MOSFET.
Direct Newton iteration succeeded in finding operating point.

.step iph=1e-08
Direct Newton iteration succeeded in finding operating point.

.step iph=1e-07
Direct Newton iteration succeeded in finding operating point.
Total elapsed time: 0.238 seconds.

Files loaded:
C:\Users\pdema\Downloads\Instrumentación y Acondicionamiento de Señal\Trabajo\Versiones anteriores\GMI\GMI_Etapa1\GMI_Etapa1.net
C:\Users\pdema\AppData\Local\LTspice\lib\cmp\standard.mos


Measurement: vgate
  step	V(gate)
     1	0.70140337944
     2	0.704440653324
     3	0.714042127132

Measurement: vout
  step	V(out)
     1	4.89091062546
     2	3.9356367588
     3	0.00417940644547

Measurement: iload
  step	AVG(I(R1))	FROM	TO
     1	-1.09089326461e-09	0	1e-06
     2	-1.06436326419e-08	0	1e-06
     3	-4.99582064606e-08	0	1e-06
