LTspice 26.0.1 for Windows
Circuit: C:\Users\pdema\Downloads\Instrumentación y Acondicionamiento de Señal\Trabajo\GMI_Etapa1\GMI_Etapa1.net
Start Time: Fri Jun  5 19:50:51 2026

.step iph=1e-09
solver = Normal
Maximum thread count: 16
tnom = 27
temp = 27
method = trap
Direct Newton iteration succeeded in finding operating point.

.step iph=1e-08
Direct Newton iteration succeeded in finding operating point.

.step iph=1e-07
Direct Newton iteration succeeded in finding operating point.
Total elapsed time: 0.411 seconds.

Files loaded:
C:\Users\pdema\Downloads\Instrumentación y Acondicionamiento de Señal\Trabajo\GMI_Etapa1\GMI_Etapa1.net
C:\Users\pdema\AppData\Local\LTspice\lib\cmp\standard.mos


Measurement: vgate
  step	V(gate)
     1	0.704437792301
     2	0.714041233063
     3	0.744391798973

Measurement: vout
  step	V(out)
     1	4.89091777802
     2	3.93583607674
     3	0.0131903011352

Measurement: iload
  step	AVG(I(R1))	FROM	TO
     1	-1.09082209931e-09	0	1e-06
     2	-1.06416386814e-08	0	1e-06
     3	-4.98680954308e-08	0	1e-06
