LTspice 26.0.1 for Windows
Circuit: C:\Users\pdema\Downloads\Instrumentación y Acondicionamiento de Señal\Trabajo\CTI_Etapa2\CTI_Etapa2.net
Start Time: Tue Jun  9 18:48:04 2026
solver = Normal
Maximum thread count: 16
tnom = 27
temp = 27
method = trap
Per .tran options, skipping operating point for transient analysis.
Total elapsed time: 0.054 seconds.

Files loaded:
C:\Users\pdema\Downloads\Instrumentación y Acondicionamiento de Señal\Trabajo\CTI_Etapa2\CTI_Etapa2.net
C:\Users\pdema\AppData\Local\LTspice\lib\sub\UniversalOpAmp2.lib

v1: V(nodo_int) =-0.0469849462098 at 5e-05
v2: V(nodo_int) =-0.187985723773 at 0.0002
slope: (V2-V1)/(150u)=-940.005183756
vpd50: V(nodo_pd) =2.00001464574 at 5e-05
vint50: V(nodo_int) =-0.0469849462098 at 5e-05
icavg: AVG(I(Cint) )=9.39999545887e-08 FROM 1e-05 TO 0.0002
