LTspice 26.0.1 for Windows
Circuit: C:\Users\pdema\Downloads\Instrumentación y Acondicionamiento de Señal\Trabajo\ID_Comp\ID_Comp.net
Start Time: Wed Jun 10 18:25:36 2026
solver = Normal
Maximum thread count: 16
tnom = 27
temp = 27
method = trap
Instance "M1": Length shorter than recommended for a level 1 MOSFET.
Instance "M3": Length shorter than recommended for a level 1 MOSFET.
Instance "M4": Length shorter than recommended for a level 1 MOSFET.
Per .tran options, skipping operating point for transient analysis.
Changing Tseed to 1.95313e-10
Changing Tseed to 1.95312e-12
Changing Tseed to 1.95312e-09
Changing Tseed to 1.95313e-13
Changing Tseed to 1.95312e-08
Changing Tseed to 1.95312e-14
Changing Tseed to 1.95312e-07
Changing Tseed to 1.95312e-15
Changing Tseed to 1.95313e-06
Changing Tseed to 1.95312e-16
Changing Tseed to 1.95312e-05
Changing Tseed to 1.95312e-17
Total elapsed time: 0.101 seconds.

Files loaded:
C:\Users\pdema\Downloads\Instrumentación y Acondicionamiento de Señal\Trabajo\ID_Comp\ID_Comp.net
C:\Users\pdema\AppData\Local\LTspice\lib\cmp\standard.mos

v1: V(nodo_int) =0.180021421643 at 0.0002
v2: V(nodo_int) =0.780015587807 at 0.0008
slope: (V2-V1)/(600u)=999.99027694
vint800: V(nodo_int) =0.780015587807 at 0.0008
vout850: V(nodo_out) =0.127897252648 at 0.00085
vpdavg: AVG(V(nodo_pd) )=0.43014129663 FROM 0.0001 TO 0.0008
ivdd: AVG(I(Vdd)   )=-1.00000001169e-07 FROM 0.0001 TO 0.0008
ivlect: AVG(I(Vlect) )=-1.3428300953e-11 FROM 0.0001 TO 0.0008
pdi: abs(5*IVDD)+abs(5*IVLECT)=5.00067147348e-07
